/*--------------------------------*- C++ -*----------------------------------*\
  =========                 |
  \\      /  F ield         | OpenFOAM: The Open Source CFD Toolbox
   \\    /   O peration     | Website:  https://openfoam.org
    \\  /    A nd           | Version:  10
     \\/     M anipulation  |
\*---------------------------------------------------------------------------*/
FoamFile
{
    version     2.0;
    format      ascii;
    class       dictionary;
    location    "constant";
    object      electromagneticsPropertie;
}
// * * * * * * * * * * * * * * * * * * * * * * * * * * * * * * * * * * * * * //

B0             [1 0 -2 0 0 -1 0] (0 1.4 0);


// ************************************************************************* //
